project/tests/fixtures/controls/legacy_regression/psse_validation_suite/suite_m_integrated_14bus_nominal.raw
@!IC, SBASE,REV,XFRRAT,NXFRAT,BASFRQ
0, 100.00, 34, 0, 1, 50.00 / PSS(R)E-34.9
SUITE_M_INTEGRATED_14BUS_NOMINAL
BASELINE 14-BUS INTEGRATED CONTROLS
GENERAL, THRSHZ=0.0001, PQBRAK=0.9700
NEWTON, ITMXN=40, VCTOLV=0.00001, VCTOLQ=0.10000
ADJUST, MXTPSS=25
SOLVER, FNSL, ACTAPS=1, AREAIN=0, PHSHFT=0, DCTAPS=1, SWSHNT=2, FACTS=1, FLATST=0, VARLIM=1, NONDIV=0
0 / END OF SYSTEM-WIDE DATA, BEGIN BUS DATA
@!   I,'NAME        ', BASKV, IDE,AREA,ZONE,OWNER, VM,        VA,    NVHI,   NVLO,   EVHI,   EVLO
1,'SLACK       ', 230.0000,3,   1,   1,   1,1.02000,   0.0000,1.10000,0.90000,1.10000,0.90000
2,'GEN_R_A     ', 230.0000,2,   1,   1,   1,1.02000,  -1.0000,1.10000,0.90000,1.10000,0.90000
3,'GEN_R_B     ', 230.0000,2,   1,   1,   1,1.02000,  -1.2000,1.10000,0.90000,1.10000,0.90000
4,'TIE_230     ', 230.0000,1,   1,   1,   1,1.00000,  -2.0000,1.10000,0.90000,1.10000,0.90000
5,'REG_230     ', 230.0000,1,   1,   1,   1,0.98000,  -3.0000,1.10000,0.90000,1.10000,0.90000
6,'SHUNT_A     ', 230.0000,1,   1,   1,   1,0.98000,  -3.2000,1.10000,0.90000,1.10000,0.90000
7,'SHUNT_B     ', 230.0000,1,   1,   1,   1,0.98000,  -3.3000,1.10000,0.90000,1.10000,0.90000
8,'STATCON     ', 230.0000,1,   1,   1,   1,0.99000,  -3.1000,1.10000,0.90000,1.10000,0.90000
9,'XFMR_HV     ', 230.0000,1,   1,   1,   1,1.00000,  -3.5000,1.10000,0.90000,1.10000,0.90000
10,'XFMR_LV     ', 115.0000,1,   1,   1,   1,0.97000,  -4.0000,1.10000,0.90000,1.10000,0.90000
11,'DC_RECT     ', 230.0000,1,   1,   1,   1,1.00000,  -2.5000,1.10000,0.90000,1.10000,0.90000
12,'DC_INV      ', 230.0000,1,   1,   1,   1,1.00000,  -3.7000,1.10000,0.90000,1.10000,0.90000
13,'SW_LOAD     ', 230.0000,1,   1,   1,   1,0.99000,  -3.4000,1.10000,0.90000,1.10000,0.90000
14,'GEN_LOCAL   ', 115.0000,2,   1,   1,   1,1.03000,  -4.2000,1.10000,0.90000,1.10000,0.90000
0 / END OF BUS DATA, BEGIN LOAD DATA
@!   I,'ID',STAT,AREA,ZONE,      PL,        QL,        IP,        IQ,        YP,        YQ, OWNER,SCALE,INTRPT,  DGENP,     DGENQ, DGENF
5,'1 ',   1,   1,   1,   120.000,    75.000,     0.000,     0.000,     0.000,     0.000,   1,1,0,     0.000,     0.000, 0
7,'1 ',   1,   1,   1,    30.000,    20.000,     0.000,     0.000,     0.000,     0.000,   1,1,0,     0.000,     0.000, 0
10,'1 ',  1,   1,   1,    55.000,    32.000,     0.000,     0.000,     0.000,     0.000,   1,1,0,     0.000,     0.000, 0
12,'1 ',  1,   1,   1,    45.000,    18.000,     0.000,     0.000,     0.000,     0.000,   1,1,0,     0.000,     0.000, 0
13,'1 ',  1,   1,   1,    25.000,    12.000,     0.000,     0.000,     0.000,     0.000,   1,1,0,     0.000,     0.000, 0
0 / END OF LOAD DATA, BEGIN FIXED SHUNT DATA
@!   I,'ID',STATUS,  GL,        BL
0 / END OF FIXED SHUNT DATA, BEGIN GENERATOR DATA
@!   I,'ID',      PG,        QG,        QT,        QB,     VS,    IREG,     MBASE,     ZR,         ZX,         RT,         XT,     GTAP,STAT, RMPCT,      PT,        PB,    O1,    F1
1,'1 ',    65.000,    10.000,   500.000,  -500.000,1.02000,     1,   100.000, 0.00000E+0, 1.00000E+0, 0.00000E+0, 0.00000E+0,1.00000,1,  100.0,   400.000,  -100.000,   1,1.0000
2,'1 ',    95.000,    65.000,   140.000,   -40.000,1.02000,     5,   100.000, 0.00000E+0, 1.00000E+0, 0.00000E+0, 0.00000E+0,1.00000,1,   60.0,   160.000,     0.000,   1,1.0000
3,'1 ',    75.000,    45.000,    90.000,   -30.000,1.02000,     5,   100.000, 0.00000E+0, 1.00000E+0, 0.00000E+0, 0.00000E+0,1.00000,1,   40.0,   120.000,     0.000,   1,1.0000
14,'1 ',   30.000,    10.000,    25.000,   -20.000,1.03000,    14,   100.000, 0.00000E+0, 1.00000E+0, 0.00000E+0, 0.00000E+0,1.00000,1,  100.0,    60.000,     0.000,   1,1.0000
0 / END OF GENERATOR DATA, BEGIN BRANCH DATA
@!   I,     J,'CKT',     R,          X,         B,                    'N A M E'                 ,   RATE1,   RATE2,   RATE3,   RATE4,   RATE5,   RATE6,   RATE7,   RATE8,   RATE9,  RATE10,  RATE11,  RATE12,    GI,       BI,       GJ,       BJ,STAT,MET,  LEN,  O1,  F1
1,2,'1 ', 5.00000E-03, 5.00000E-02,   0.00000,'LINE12                                  ',  300.00,  300.00,  300.00,    0.00,    0.00,    0.00,    0.00,    0.00,    0.00,    0.00,    0.00,    0.00,  0.00000,  0.00000,  0.00000,  0.00000,1,1,  10.00,   1,1.0000
1,3,'1 ', 5.00000E-03, 5.00000E-02,   0.00000,'LINE13                                  ',  300.00,  300.00,  300.00,    0.00,    0.00,    0.00,    0.00,    0.00,    0.00,    0.00,    0.00,    0.00,  0.00000,  0.00000,  0.00000,  0.00000,1,1,  10.00,   1,1.0000
2,4,'1 ', 5.00000E-03, 4.00000E-02,   0.00000,'LINE24                                  ',  300.00,  300.00,  300.00,    0.00,    0.00,    0.00,    0.00,    0.00,    0.00,    0.00,    0.00,    0.00,  0.00000,  0.00000,  0.00000,  0.00000,1,1,  10.00,   1,1.0000
3,4,'1 ', 5.00000E-03, 4.00000E-02,   0.00000,'LINE34                                  ',  300.00,  300.00,  300.00,    0.00,    0.00,    0.00,    0.00,    0.00,    0.00,    0.00,    0.00,    0.00,  0.00000,  0.00000,  0.00000,  0.00000,1,1,  10.00,   1,1.0000
4,5,'1 ', 7.00000E-03, 6.50000E-02,   0.00000,'LINE45                                  ',  300.00,  300.00,  300.00,    0.00,    0.00,    0.00,    0.00,    0.00,    0.00,    0.00,    0.00,    0.00,  0.00000,  0.00000,  0.00000,  0.00000,1,1,  10.00,   1,1.0000
5,6,'1 ', 1.00000E-02, 8.00000E-02,   0.00000,'LINE56                                  ',  200.00,  200.00,  200.00,    0.00,    0.00,    0.00,    0.00,    0.00,    0.00,    0.00,    0.00,    0.00,  0.00000,  0.00000,  0.00000,  0.00000,1,1,  10.00,   1,1.0000
5,7,'1 ', 1.00000E-02, 8.00000E-02,   0.00000,'LINE57                                  ',  200.00,  200.00,  200.00,    0.00,    0.00,    0.00,    0.00,    0.00,    0.00,    0.00,    0.00,    0.00,  0.00000,  0.00000,  0.00000,  0.00000,1,1,  10.00,   1,1.0000
5,8,'1 ', 8.00000E-03, 7.00000E-02,   0.00000,'LINE58                                  ',  200.00,  200.00,  200.00,    0.00,    0.00,    0.00,    0.00,    0.00,    0.00,    0.00,    0.00,    0.00,  0.00000,  0.00000,  0.00000,  0.00000,1,1,  10.00,   1,1.0000
5,9,'1 ', 1.00000E-02, 9.00000E-02,   0.00000,'LINE59                                  ',  200.00,  200.00,  200.00,    0.00,    0.00,    0.00,    0.00,    0.00,    0.00,    0.00,    0.00,    0.00,  0.00000,  0.00000,  0.00000,  0.00000,1,1,  10.00,   1,1.0000
4,11,'1 ',8.00000E-03, 5.50000E-02,   0.00000,'RECT AC                                 ',  200.00,  200.00,  200.00,    0.00,    0.00,    0.00,    0.00,    0.00,    0.00,    0.00,    0.00,    0.00,  0.00000,  0.00000,  0.00000,  0.00000,1,1,  10.00,   1,1.0000
12,5,'1 ',8.00000E-03, 5.50000E-02,   0.00000,'INV AC                                  ',  200.00,  200.00,  200.00,    0.00,    0.00,    0.00,    0.00,    0.00,    0.00,    0.00,    0.00,    0.00,  0.00000,  0.00000,  0.00000,  0.00000,1,1,  10.00,   1,1.0000
10,14,'1 ',1.00000E-02, 7.00000E-02,   0.00000,'LV GEN LINE                             ',  120.00,  120.00,  120.00,    0.00,    0.00,    0.00,    0.00,    0.00,    0.00,    0.00,    0.00,    0.00,  0.00000,  0.00000,  0.00000,  0.00000,1,1,   5.00,   1,1.0000
0 / END OF BRANCH DATA, BEGIN SYSTEM SWITCHING DEVICE DATA
@!   I,     J,'CKT',          X,   RATE1,   RATE2,   RATE3,   RATE4,   RATE5,   RATE6,   RATE7,   RATE8,   RATE9,  RATE10,  RATE11,  RATE12, STAT,NSTAT,  MET,STYPE,'NAME'
4,13,'@1', 1.00000E-4,  150.00,  150.00,  150.00,  150.00,  150.00,  150.00,  150.00,  150.00,  150.00,  150.00,  150.00,  150.00,    1,    1,    2,    2,'SWD INT                                 '
0 / END OF SYSTEM SWITCHING DEVICE DATA, BEGIN TRANSFORMER DATA
@!   I,     J,     K,'CKT',CW,CZ,CM,     MAG1,        MAG2,NMETR,               'N A M E',               STAT,O1,  F1,    O2,  F2,    O3,  F3,    O4,  F4,     'VECGRP', ZCOD
9,10,0,'1 ',1,1,1, 0.00010, 0.00100,1,'ULTC INT                                ',1
0.01000, 0.10000, 100.00
1.00000, 0.000, 0.000, 150.00,150.00,150.00,0,0,0,0,0,0,0,0,0, 1, 10, 1.10000,0.90000,1.02000,0.98000,9,0,0.00000,0.00000,0.000,0
1.00000, 0.000
0 / END OF TRANSFORMER DATA, BEGIN AREA DATA
@! I,   ISW,     PDES,      PTOL,    'ARNAME'
1,     1,      0.000,     10.000, 'AREA1'
0 / END OF AREA DATA, BEGIN TWO-TERMINAL DC DATA
@!  'NAME',   MDC,     RDC,      SETVL,     VSCHD,     VCMOD,     RCOMP,    DELTI,METER    DCVMIN,CCCITMX, CCCACC
@! IPR,NBR,ANMXR,ANMNR,   RCR,    XCR,  EBASR,  TRR,    TAPR,   TMXR,   TMNR,   STPR,    ICR,   IFR,   ITR,'IDR', XCAPR,NDR
@! IPI,NBI,ANMXI,ANMNI,   RCI,    XCI,  EBASI,  TRI,    TAPI,   TMXI,   TMNI,   STPI,    ICI,   IFI,   ITI,'IDI', XCAPI,NDI
"DC INT      ",1,   10.0000,     40.00,    400.00,    390.00,   10.0000,   0.10000,'R',      0.00, 100,   1.00000
    11,  4,17.50,12.50, 0.0000, 5.0000, 230.0,1.00000,1.00000,1.25000,0.92500,0.01250,     0,     0,     0,'1 ', 0.0000,  0
    12,  4,17.00,17.00, 0.0000, 5.0000, 230.0,1.00000,1.00000,1.30500,0.96600,0.01250,     0,     0,     0,'1 ', 0.0000,  0
0 / END OF TWO-TERMINAL DC DATA, BEGIN VSC DC LINE DATA
@!  'NAME',   MDC,     RDC,   O1,  F1
0 / END OF VSC DC LINE DATA, BEGIN IMPEDANCE CORRECTION DATA
@!I,   T1,    Re(F1),  Im(F1)
0 / END OF IMPEDANCE CORRECTION DATA, BEGIN MULTI-TERMINAL DC DATA
@!  'NAME',    NCONV,NDCBS,NDCLN,  MDC, VCONV,     VCMOD, VCONVN
0 / END OF MULTI-TERMINAL DC DATA, BEGIN MULTI-SECTION LINE DATA
@!   I,     J,'ID',MET,DUM1,  DUM2
0 / END OF MULTI-SECTION LINE DATA, BEGIN ZONE DATA
@! I,   'ZONAME'
1, 'ZONE1'
0 / END OF ZONE DATA, BEGIN INTER-AREA TRANSFER DATA
@!ARFROM,ARTO,'TRID', PTRAN
0 / END OF INTER-AREA TRANSFER DATA, BEGIN OWNER DATA
@! I,   'OWNAME'
1, 'OWNER1'
0 / END OF OWNER DATA, BEGIN FACTS DEVICE DATA
@!  'NAME',         I,     J,MODE,   PDES,      QDES,  VSET,      SHMX,      TRMX,   VTMN,   VTMX,   VSMX,      IMX,     LINX,   RMPCT,OWNER,    SET1,      SET2,VSREF, FCREG,   'MNAME'    ,NREG
"STATCON INT ",     8,     0,   1,   0.000,     0.000,1.01500,   120.000,     0.000,0.90000,1.10000,1.00000,     0.000, 0.05000,  100.0,   1,   0.00000,   0.00000,   0,     8,"            ",   0
0 / END OF FACTS DEVICE DATA, BEGIN SWITCHED SHUNT DATA
@!  I,MODSW,ADJM,ST, VSWHI,  VSWLO, SWREG,  RMPCT,   'RMIDNT',      BINIT,N1,     B1, N2,     B2, NREG
6,  1,  0,  1,1.02500,0.99500,     5,  100.0,'            ',    0.00, 6,    5.00, 0,    0.00, 0
7,  1,  0,  1,1.02500,0.99500,     5,  100.0,'            ',    0.00, 6,    5.00, 0,    0.00, 0
0 / END OF SWITCHED SHUNT DATA, BEGIN GNE DATA
@!  'NAME',        'MODEL',     NTERM,BUS1...BUSNTERM,NREAL,NINTG,NCHAR
0 / END OF GNE DATA, BEGIN INDUCTION MACHINE DATA
@!   I,'ID',ST,SC,DC,AREA,ZONE,OWNER,TC,BC,  MBASE, RATEKV,PC
0 / END OF INDUCTION MACHINE DATA, BEGIN SUBSTATION DATA
0 / END OF SUBSTATION DATA

