project/outputs/reanudacion_20260910/psse_suite/logs/suite_m_integrated_14bus_nominal.log
PSSE CLI power-flow run configuration
====================================
RAW file: C:\Users\Santiago\Documents\PROYECTO FINAL DE CARRERA - MATPOWER\auditoria_psse_matpower\psse_validation_suite\suite_m_integrated_14bus_nominal.raw
PSSE executable: C:\Program Files (x86)\PTI\PSSE34\PSSBIN\pssecmd34.exe
RAW output version: 34
Solver: FNSL
Solver option array code form: BAT_FNSL 1 0 0 1 2 0 1 0
Solver option array values: 1 0 0 1 2 0 1 0

Explicit solver option parameters:
- Option 1, tap adjustment flag = 1: enable transformer tap stepping adjustment.
- Option 2, area interchange adjustment flag = 0: disable area interchange adjustment.
- Option 3, phase shift adjustment flag = 0: disable phase-shifter adjustment.
- Option 4, DC tap adjustment flag = 1: enable DC tap adjustment.
- Option 5, switched shunt adjustment flag = 2: enable switched-shunt continuous mode and disable discrete mode.
- Option 6, flat start flag = 0: do not flat start; use voltages already present in the RAW/case.
- Option 7, VAR limit flag = 1: apply generator reactive power limits on iteration 1, or sooner if mismatch gets small.
- Option 8, non-divergent solution flag = 0: disable non-divergent Newton solution.

Additional explicit solver parameters:
- RAW GENERAL, THRSHZ=0.0001: set with BAT_SOLUTION_PARAMETERS_4 REALAR(11).
- RAW GENERAL, PQBRAK=0.9700: set with BAT_SOLUTION_PARAMETERS_4 REALAR(10).
- RAW NEWTON, ITMXN=40: set with BAT_SOLUTION_PARAMETERS_4 INTGAR(2).
- RAW NEWTON, VCTOLQ=0.10000: set with BAT_SOLUTION_PARAMETERS_4 REALAR(17).
- RAW NEWTON, VCTOLV=0.00001: set with BAT_SOLUTION_PARAMETERS_4 REALAR(18).
- RAW ADJUST, MXTPSS=25: set with BAT_SOLUTION_PARAMETERS_4 INTGAR(4).
- RAW SOLVER line applied to BAT_FNSL option array: SOLVER, FNSL, ACTAPS=1, AREAIN=0, PHSHFT=0, DCTAPS=1, SWSHNT=2, FACTS=1, FLATST=0, VARLIM=1, NONDIV=0

Generated PSSE response commands:
  BAT_READ 0 "C:\Users\Santiago\Documents\PROYECTO FINAL DE CARRERA - MATPOWER\auditoria_psse_matpower\psse_validation_suite\suite_m_integrated_14bus_nominal.raw"
  BAT_SOLUTION_PARAMETERS_4 100 40 20 25 10 1.6 1.6 1 0.0001 1 0.1 1 1E-05 5 0.97 0.0001 0.005 1 0.05 0.99 0.99 0.1 1E-05 100
  BAT_FNSL 1 0 0 1 2 0 1 0
  BAT_LAMP 0 1
  BAT_POUT 0 1
  BAT_LOUT 0 1
  BAT_VCHK 0 1 0.95 1.05
  BAT_RATE_2 0 1 1 1 1 1 100.0
  BAT_REGB 0 1
  BAT_OUTS 0 1
  BAT_SHNT 0 1 1
  BAT_LIST 0 1 1 0
  BAT_LIST 0 1 2 0
  BAT_LIST 0 1 3 0
  BAT_LIST 0 1 4 0
  BAT_LIST 0 1 5 0
  BAT_LIST 0 1 6 0
  BAT_LIST 0 1 7 0
  BAT_LIST 0 1 10 0
  BAT_LIST 0 1 18 0
  BAT_LIST 0 1 20 0
  BAT_LIST 0 1 27 0
  BAT_LIST 0 1 28 0
  BAT_AREA_2 0 1 2
  BAT_ZONE_2 0 1 2
  BAT_WRITERAWVERSION '34' 0 "C:\Users\Santiago\Documents\PROYECTO FINAL DE CARRERA - MATPOWER\outputs\reanudacion_20260910\psse_suite\solved_raw\suite_m_integrated_14bus_nominal_solved.raw"
  BAT_SAVE "C:\Users\Santiago\Documents\PROYECTO FINAL DE CARRERA - MATPOWER\outputs\reanudacion_20260910\psse_suite\suite_m_integrated_14bus_nominal.sav"
  STOP

PSSE console output
===================


 PSS(R)E Version 34
 Copyright (c) 1976-2026
 Siemens Industry, Inc.,
 Power Technologies International                            (PTI)
 This program is a confidential  unpublished  work  created  and  first
 licensed in 1976.  It is a trade secret which is the property of  PTI.
 All use,  disclosure,  and/or reproduction not specifically authorized
 by  PTI  is prohibited.   This  program is protected  under  copyright
 laws  of  non-U.S.  countries  and  by  application  of  international
 treaties.  All  Rights  Reserved  Under  The  Copyright  Laws.


           SIEMENS POWER TECHNOLOGIES INTERNATIONAL

      50000 BUS POWER SYSTEM SIMULATOR--PSS(R)E-34.9.3

             INITIATED ON THU, SEP 10 2026  11:23

 ACTIVITY? 
 Reading IC, SBASE, REV, XFRRAT, NXFRAT, BASFRQ...

 Reading two line case heading...

 Reading system-wide data...

 Reading bus data...

 Reading load data...

 Reading fixed bus shunt data...

 Reading generator data...

 Reading non-transformer branch data...

 Reading system switching device data...

 Reading transformer data...

 Messages for two-winding transformer circuit "1" from 9 [XFMR_HV     230.00] to 10 [XFMR_LV     115.00]:   (004616)
  Warn: Magnetizing susceptance MAG2 (.100000E-02) is positive   (004666)

 Reading area interchange data...

 Reading two-terminal dc line data...

 Reading VSC dc line data...

 Reading transformer impedance correction data...

 Reading multi-terminal dc line data...

 Reading multi-section line data...

 Reading zone name data...

 Reading inter-area transfer data...

 Reading owner name data...

 Reading FACTS device data...

 Reading switched shunt data...

 Reading GNE device data...

 Reading induction machine data...

 Reading substation data...
 Batch command complete.
 : 
 No power flow solution parameters changed
 Batch command complete.
 : 
 Ordering network...
 Diagonals = 12   Off-diagonals = 11   Maximum size = 22

  ITER       DELTAP      BUS         DELTAQ      BUS        DELTA/V/      BUS       DELTAANG      BUS
   0         1.2519(      5     )    0.7811(     10     )
                                                             0.04082(      6     )   0.16254(     10     )
   1         0.0674(      5     )    1.0148(      2     )
                                     1.6893(      5     )
                                                             0.03226(      2     )   0.01082(      7     )
   2         0.0043(      2     )    1.3342(      5     )
                                                             0.06982(     10     )   0.01279(      8     )
   3         0.0059(      8     )    0.0776(      5     )
                                                             0.00573(     10     )   0.00284(      8     )
   4         0.0005(     10     )    0.0005(     11     )

 TAP RATIOS ADJUSTED:
 X------ ADJUSTABLE SIDE ------X  X------------ TO -------------X CKT   OLD       NEW       CHANGE
      9     [XFMR_HV     230.00]      10     [XFMR_LV     115.00]  1  1.00000   0.97500   -0.02500

 1 tap ratios adjusted

   4         0.0296(      9     )    0.2339(      9     )
                                                             0.02858(     10     )   0.00201(     10     )
   5         0.0040(     10     )    0.0081(     10     )
                                                             0.00231(     10     )   0.00103(     10     )

 TAP RATIOS ADJUSTED:
 X------ ADJUSTABLE SIDE ------X  X------------ TO -------------X CKT   OLD       NEW       CHANGE
      9     [XFMR_HV     230.00]      10     [XFMR_LV     115.00]  1  0.97500   0.95000   -0.02500

 1 tap ratios adjusted

   6         0.0316(      9     )    0.2526(      9     )
                                                             0.02923(     10     )   0.00172(     10     )
   7         0.0022(     10     )    0.0076(     10     )
                                                             0.00204(     10     )   0.00041(     10     )
   8         0.0000(      5     )    0.0002(     11     )


 Reached tolerance in 8 iterations

 Largest mismatch:     -0.00 MW      0.02 Mvar      0.02 MVA at bus 11 [DC_RECT     230.00]
 System total absolute mismatch:                    0.04 MVA

 SWING BUS SUMMARY:
   BUS#-SCT X-- NAME --X BASKV      PGEN     PMAX    PMIN      QGEN     QMAX    QMIN
      1     SLACK       230.00      81.0    400.0  -100.0     -95.2    500.0  -500.0
 Batch command complete.
 :                                         PTI INTERACTIVE POWER SYSTEM SIMULATOR--PSS(R)E     THU, SEP 10 2026  11:23
                         SUITE_M_INTEGRATED_14BUS_NOMINAL                                 %MVA FOR TRANSFORMERS
                         BASELINE 14-BUS INTEGRATED CONTROLS                              % I  FOR NON-TRANSFORMER BRANCHES

 X--------- FROM BUS --------X AREA  VOLT            GEN    LOAD    SHUNT  X------------ TO BUS ------------X                     TRANSFORMER            RATING
   BUS#-SCT X-- NAME --X BASKV ZONE  PU/KV  ANGLE  MW/MVAR MW/MVAR MW/MVAR   BUS#-SCT X-- NAME --X BASKV AREA CKT   MW    MVAR   RATIO   ANGLE   AMPS   %  SET 1

      1     SLACK       230.00    1 1.0200    0.0    81.0      0.0     0.0 -------------------------------------------------------------------------------------
                                  1 234.60          -95.2R     0.0    -0.0      2     GEN_R_A     230.00    1  1    36.6  -58.4                   170  23   753A
                                                                                3     GEN_R_B     230.00    1  1    44.3  -36.9                   142  19   753A
      2     GEN_R_A     230.00    1 1.0470   -1.1    95.0      0.0     0.0 -------------------------------------------------------------------------------------
                                  1 240.81          140.0H     0.0    -0.0      1     SLACK       230.00    1  1   -36.4   60.6                   170  23   753A
                                                                                4     TIE_230     230.00    1  1   131.4   79.4                   368  49   753A
      3     GEN_R_B     230.00    1 1.0362   -1.3    75.0      0.0     0.0 -------------------------------------------------------------------------------------
                                  1 238.32           90.0H     0.0    -0.0      1     SLACK       230.00    1  1   -44.2   38.5                   142  19   753A
                                                                                4     TIE_230     230.00    1  1   119.2   51.5                   315  42   753A
      4     TIE_230     230.00    1 1.0115   -3.8     0.0      0.0     0.0 -------------------------------------------------------------------------------------
                                  1 232.64            0.0      0.0    -0.0      2     GEN_R_A     230.00    1  1  -130.3  -70.8                   368  49   753A
                                                                                3     GEN_R_B     230.00    1  1  -118.4  -45.2                   315  42   753A
                                                                                5     REG_230     230.00    1  1   183.5   79.2                   496  66   753A
                                                                               11     DC_RECT     230.00    1  1    40.2   24.7                   117  23   502A
                                                                               13     SW_LOAD     230.00    1  @1   25.0   12.0                    69  18   377A
      5     REG_230     230.00    1 0.9545  -10.5     0.0    119.9     0.0 -------------------------------------------------------------------------------------
                                  1 219.54            0.0     74.9    -0.0      4     TIE_230     230.00    1  1  -180.8  -53.9                   496  66   753A
                                                                                6     SHUNT_A     230.00    1  1    -0.0    0.0                     0   0   502A
                                                                                7     SHUNT_B     230.00    1  1    30.0   21.1                    97  19   502A
                                                                                8     STATCON     230.00    1  1     0.6  -82.5                   217  43   502A
                                                                                9     XFMR_HV     230.00    1  1    25.3    9.4                    71  14   502A
                                                                               12     DC_INV      230.00    1  1     5.0   30.9                    82  16   502A
      6     SHUNT_A     230.00    1 0.9545  -10.5     0.0      0.0     0.0 -------------------------------------------------------------------------------------
                                  1 219.54            0.0      0.0    -0.0      5     REG_230     230.00    1  1     0.0   -0.0                     0   0   502A

      7     SHUNT_B     230.00    1 0.9340  -11.9     0.0     29.9     0.0 -------------------------------------------------------------------------------------
                                  1 214.81            0.0     19.9    -0.0      5     REG_230     230.00    1  1   -29.9  -19.9                    97  19   502A

      8     STATCON     230.00    1 1.0150  -11.0     0.0      0.0     0.0 -------------------------------------------------------------------------------------
                                  1 233.45            0.0      0.0    -0.0 STATCON SHUNT                      STA    0.0  -87.8 "STATCON INT "    217  72   301A
                                                                                5     REG_230     230.00    1  1     0.0   87.8                   217  43   502A
      9     XFMR_HV     230.00    1 0.9433  -11.9     0.0      0.0     0.0 -------------------------------------------------------------------------------------
                                  1 216.95            0.0      0.0    -0.0      5     REG_230     230.00    1  1   -25.2   -8.7                    71  14   502A
                                                                               10     XFMR_LV     115.00    1  1    25.2    8.7 0.950RG            71  18   150M
     10     XFMR_LV     115.00    1 0.9818  -13.4     0.0     55.0     0.0 -------------------------------------------------------------------------------------
                                  1 112.91            0.0     32.0    -0.0      9     XFMR_HV     230.00    1  1   -25.2   -8.1 1.000UN           135  18   150M
                                                                               14     GEN_LOCAL   115.00    1  1   -29.8  -23.9                   196  32   602A
     11     DC_RECT     230.00    1 0.9950   -4.9     0.0      0.0     0.0 -------------------------------------------------------------------------------------
                                  1 228.86            0.0      0.0    -0.0     12     DC_INV      230.00    1 2DR   40.0   23.6 1.250HI  30.4HI   117 "DC INT"
                                                                                4     TIE_230     230.00    1  1   -40.0  -23.6                   117  23   502A
     12     DC_INV      230.00    1 0.9363  -10.6     0.0     44.8     0.0 -------------------------------------------------------------------------------------
                                  1 215.35            0.0     17.9    -0.0     11     DC_RECT     230.00    1 2DI  -40.0   12.4 1.305HI  17.0LO   112 "DC INT"
                                                                                5     REG_230     230.00    1  1    -4.9  -30.3                    82  16   502A
     13     SW_LOAD     230.00    1 1.0115   -3.8     0.0     25.0     0.0 -------------------------------------------------------------------------------------
                                  1 232.64            0.0     12.0    -0.0      4     TIE_230     230.00    1  @1  -25.0  -12.0                    69  18   377A

     14     GEN_LOCAL   115.00    1 1.0021  -12.3    30.0      0.0     0.0 -------------------------------------------------------------------------------------
                                  1 115.24           25.0H     0.0    -0.0     10     XFMR_LV     115.00    1  1    30.0   25.0                   196  32   602A

 Output completed
 Batch command complete.
 :      PTI INTERACTIVE POWER SYSTEM SIMULATOR--PSS(R)E     THU, SEP 10 2026  11:23
 SUITE_M_INTEGRATED_14BUS_NOMINAL                                         RATING   %MVA FOR TRANSFORMERS
 BASELINE 14-BUS INTEGRATED CONTROLS                                      SET  1   % I  FOR NON-TRANSFORMER BRANCHES

 BUS      1     SLACK       230.00 CKT     MW     MVAR     MVA   % 1.0200PU    0.00  X--- LOSSES ---X X---- AREA -----X X---- ZONE -----X      1
  FROM GENERATION                         81.0   -95.2R  125.0 125 234.60KV               MW     MVAR    1 AREA1           1 ZONE1
  TO      2     GEN_R_A     230.00  1     36.6   -58.4    68.9  23                       0.23    2.28    1 AREA1           1 ZONE1
  TO      3     GEN_R_B     230.00  1     44.3   -36.9    57.7  19                       0.16    1.60    1 AREA1           1 ZONE1

 BUS      2     GEN_R_A     230.00 CKT     MW     MVAR     MVA   % 1.0470PU   -1.14  X--- LOSSES ---X X---- AREA -----X X---- ZONE -----X      2
  FROM GENERATION                         95.0   140.0H  169.2 169 240.81KV               MW     MVAR    1 AREA1           1 ZONE1
  TO      1     SLACK       230.00  1    -36.4    60.6    70.7  23                       0.23    2.28    1 AREA1           1 ZONE1
  TO      4     TIE_230     230.00  1    131.4    79.4   153.5  49                       1.07    8.60    1 AREA1           1 ZONE1

 BUS      3     GEN_R_B     230.00 CKT     MW     MVAR     MVA   % 1.0362PU   -1.30  X--- LOSSES ---X X---- AREA -----X X---- ZONE -----X      3
  FROM GENERATION                         75.0    90.0H  117.2 117 238.32KV               MW     MVAR    1 AREA1           1 ZONE1
  TO      1     SLACK       230.00  1    -44.2    38.5    58.6  19                       0.16    1.60    1 AREA1           1 ZONE1
  TO      4     TIE_230     230.00  1    119.2    51.5   129.8  42                       0.79    6.28    1 AREA1           1 ZONE1

 BUS      4     TIE_230     230.00 CKT     MW     MVAR     MVA   % 1.0115PU   -3.77  X--- LOSSES ---X X---- AREA -----X X---- ZONE -----X      4
                                                                   232.64KV               MW     MVAR    1 AREA1           1 ZONE1
  TO      2     GEN_R_A     230.00  1   -130.3   -70.8   148.3  49                       1.07    8.60    1 AREA1           1 ZONE1
  TO      3     GEN_R_B     230.00  1   -118.4   -45.2   126.7  42                       0.79    6.28    1 AREA1           1 ZONE1
  TO      5     REG_230     230.00  1    183.5    79.2   199.9  66                       2.73   25.39    1 AREA1           1 ZONE1
  TO     11     DC_RECT     230.00  1     40.2    24.7    47.2  23                       0.17    1.20    1 AREA1           1 ZONE1
  TO     13     SW_LOAD     230.00  @1    25.0    12.0    27.7  18                       0.00    0.00    1 AREA1           1 ZONE1

 BUS      5     REG_230     230.00 CKT     MW     MVAR     MVA   % 0.9545PU  -10.54  X--- LOSSES ---X X---- AREA -----X X---- ZONE -----X      5
                                                                   219.54KV               MW     MVAR    1 AREA1           1 ZONE1
  TO LOAD-PQ                             119.9    74.9   141.4
  TO      4     TIE_230     230.00  1   -180.8   -53.9   188.7  66                       2.73   25.39    1 AREA1           1 ZONE1
  TO      6     SHUNT_A     230.00  1     -0.0     0.0     0.0   0                       0.00    0.00    1 AREA1           1 ZONE1
  TO      7     SHUNT_B     230.00  1     30.0    21.1    36.7  19                       0.15    1.18    1 AREA1           1 ZONE1
  TO      8     STATCON     230.00  1      0.6   -82.5    82.5  43                       0.60    5.23    1 AREA1           1 ZONE1
  TO      9     XFMR_HV     230.00  1     25.3     9.4    27.0  14                       0.08    0.72    1 AREA1           1 ZONE1
  TO     12     DC_INV      230.00  1      5.0    30.9    31.3  16                       0.09    0.59    1 AREA1           1 ZONE1

 BUS      6     SHUNT_A     230.00 CKT     MW     MVAR     MVA   % 0.9545PU  -10.54  X--- LOSSES ---X X---- AREA -----X X---- ZONE -----X      6
                                                                   219.54KV               MW     MVAR    1 AREA1           1 ZONE1
  TO SWITCHED SHUNT                        0.0    -0.0     0.0
  TO      5     REG_230     230.00  1      0.0    -0.0     0.0   0                       0.00    0.00    1 AREA1           1 ZONE1

 BUS      7     SHUNT_B     230.00 CKT     MW     MVAR     MVA   % 0.9340PU  -11.94  X--- LOSSES ---X X---- AREA -----X X---- ZONE -----X      7
                                                                   214.81KV               MW     MVAR    1 AREA1           1 ZONE1
  TO LOAD-PQ                              29.9    19.9    35.9
  TO SWITCHED SHUNT                        0.0    -0.0     0.0
  TO      5     REG_230     230.00  1    -29.9   -19.9    35.9  19                       0.15    1.18    1 AREA1           1 ZONE1

 BUS      8     STATCON     230.00 CKT     MW     MVAR     MVA   % 1.0150PU  -10.95  X--- LOSSES ---X X---- AREA -----X X---- ZONE -----X      8
                                                                   233.45KV               MW     MVAR    1 AREA1           1 ZONE1
  TO STATCON SHUNT                 STA     0.0   -87.8    87.8  72                                                                        "STATCON INT"
  TO      5     REG_230     230.00  1      0.0    87.8    87.8  43                       0.60    5.23    1 AREA1           1 ZONE1

 BUS      9     XFMR_HV     230.00 CKT     MW     MVAR     MVA   % 0.9433PU  -11.93  X--- LOSSES ---X X---- AREA -----X X---- ZONE -----X      9
                                                                   216.95KV               MW     MVAR    1 AREA1           1 ZONE1
  TO      5     REG_230     230.00  1    -25.2    -8.7    26.7  14                       0.08    0.72    1 AREA1           1 ZONE1
  TO     10     XFMR_LV     115.00  1     25.2     8.7    26.7  18 0.9500RG              0.07    0.72    1 AREA1           1 ZONE1

 BUS     10     XFMR_LV     115.00 CKT     MW     MVAR     MVA   % 0.9818PU  -13.36  X--- LOSSES ---X X---- AREA -----X X---- ZONE -----X     10
                                                                   112.91KV               MW     MVAR    1 AREA1           1 ZONE1
  TO LOAD-PQ                              55.0    32.0    63.6
  TO      9     XFMR_HV     230.00  1    -25.2    -8.1    26.4  18 1.0000UN              0.07    0.72    1 AREA1           1 ZONE1
  TO     14     GEN_LOCAL   115.00  1    -29.8   -23.9    38.3  32                       0.15    1.06    1 AREA1           1 ZONE1

 BUS     11     DC_RECT     230.00 CKT     MW     MVAR     MVA   % 0.9950PU   -4.91  X--- LOSSES ---X X---- AREA -----X X---- ZONE -----X     11
                                                                   228.86KV               MW     MVAR    1 AREA1           1 ZONE1
  TO     12     DC_INV      230.00 2DR    40.0    23.6    46.4     1.2500HI   30.41HI    0.02   35.95    1 AREA1           1 ZONE1        "DC INT"
  TO      4     TIE_230     230.00  1    -40.0   -23.6    46.4  23                       0.17    1.20    1 AREA1           1 ZONE1

 BUS     12     DC_INV      230.00 CKT     MW     MVAR     MVA   % 0.9363PU  -10.55  X--- LOSSES ---X X---- AREA -----X X---- ZONE -----X     12
                                                                   215.35KV               MW     MVAR    1 AREA1           1 ZONE1
  TO LOAD-PQ                              44.8    17.9    48.3
  TO     11     DC_RECT     230.00 2DI   -40.0    12.4    41.8     1.3050HI   17.00LO    0.02   35.95    1 AREA1           1 ZONE1        "DC INT"
  TO      5     REG_230     230.00  1     -4.9   -30.3    30.7  16                       0.09    0.59    1 AREA1           1 ZONE1

 BUS     13     SW_LOAD     230.00 CKT     MW     MVAR     MVA   % 1.0115PU   -3.77  X--- LOSSES ---X X---- AREA -----X X---- ZONE -----X     13
                                                                   232.64KV               MW     MVAR    1 AREA1           1 ZONE1
  TO LOAD-PQ                              25.0    12.0    27.7
  TO      4     TIE_230     230.00  @1   -25.0   -12.0    27.7  18                       0.00    0.00    1 AREA1           1 ZONE1

 BUS     14     GEN_LOCAL   115.00 CKT     MW     MVAR     MVA   % 1.0021PU  -12.28  X--- LOSSES ---X X---- AREA -----X X---- ZONE -----X     14
  FROM GENERATION                         30.0    25.0H   39.1  39 115.24KV               MW     MVAR    1 AREA1           1 ZONE1
  TO     10     XFMR_LV     115.00  1     30.0    25.0    39.1  32                       0.15    1.06    1 AREA1           1 ZONE1

 Output completed
 Batch command complete.
 :                                         PTI INTERACTIVE POWER SYSTEM SIMULATOR--PSS(R)E     THU, SEP 10 2026  11:23
                         SUITE_M_INTEGRATED_14BUS_NOMINAL                                 %MVA FOR TRANSFORMERS
                         BASELINE 14-BUS INTEGRATED CONTROLS                              % I  FOR NON-TRANSFORMER BRANCHES

 X--------- FROM BUS --------X AREA  VOLT            GEN    LOAD    SHUNT  X------------ TO BUS ------------X                        TRANSFORMER     RATING
   BUS#-SCT X-- NAME --X BASKV ZONE  PU/KV  ANGLE  MW/MVAR MW/MVAR MW/MVAR   BUS#-SCT X-- NAME --X BASKV AREA CKT    MW     MVAR    RATIO   ANGLE   %  SET 1

      1     SLACK       230.00    1 1.0200    0.0    81.0      0.0     0.0 ---------------------------------------------------------------------------------
                                  1 234.60          -95.2R     0.0    -0.0      2     GEN_R_A     230.00    1  1     36.6   -58.4                   23   300
                                                                                3     GEN_R_B     230.00    1  1     44.3   -36.9                   19   300
      2     GEN_R_A     230.00    1 1.0470   -1.1    95.0      0.0     0.0 ---------------------------------------------------------------------------------
                                  1 240.81          140.0H     0.0    -0.0      1     SLACK       230.00    1  1    -36.4    60.6                   23   300
                                                                                4     TIE_230     230.00    1  1    131.4    79.4                   49   300
      3     GEN_R_B     230.00    1 1.0362   -1.3    75.0      0.0     0.0 ---------------------------------------------------------------------------------
                                  1 238.32           90.0H     0.0    -0.0      1     SLACK       230.00    1  1    -44.2    38.5                   19   300
                                                                                4     TIE_230     230.00    1  1    119.2    51.5                   42   300
      4     TIE_230     230.00    1 1.0115   -3.8     0.0      0.0     0.0 ---------------------------------------------------------------------------------
                                  1 232.64            0.0      0.0    -0.0      2     GEN_R_A     230.00    1  1   -130.3   -70.8                   49   300
                                                                                3     GEN_R_B     230.00    1  1   -118.4   -45.2                   42   300
                                                                                5     REG_230     230.00    1  1    183.5    79.2                   66   300
                                                                               11     DC_RECT     230.00    1  1     40.2    24.7                   23   200
                                                                               13     SW_LOAD     230.00    1  @1    25.0    12.0                   18   150
      5     REG_230     230.00    1 0.9545  -10.5     0.0    119.9     0.0 ---------------------------------------------------------------------------------
                                  1 219.54            0.0     74.9    -0.0      4     TIE_230     230.00    1  1   -180.8   -53.9                   66   300
                                                                                6     SHUNT_A     230.00    1  1     -0.0     0.0                    0   200
                                                                                7     SHUNT_B     230.00    1  1     30.0    21.1                   19   200
                                                                                8     STATCON     230.00    1  1      0.6   -82.5                   43   200
                                                                                9     XFMR_HV     230.00    1  1     25.3     9.4                   14   200
                                                                               12     DC_INV      230.00    1  1      5.0    30.9                   16   200
      6     SHUNT_A     230.00    1 0.9545  -10.5     0.0      0.0     0.0 ---------------------------------------------------------------------------------
                                  1 219.54            0.0      0.0    -0.0      5     REG_230     230.00    1  1      0.0    -0.0                    0   200

      7     SHUNT_B     230.00    1 0.9340  -11.9     0.0     29.9     0.0 ---------------------------------------------------------------------------------
                                  1 214.81            0.0     19.9    -0.0      5     REG_230     230.00    1  1    -29.9   -19.9                   19   200

      8     STATCON     230.00    1 1.0150  -11.0     0.0      0.0     0.0 ---------------------------------------------------------------------------------
                                  1 233.45            0.0      0.0    -0.0 STATCON SHUNT                      STA     0.0   -87.8  "STATCON INT "   72   120
                                                                                5     REG_230     230.00    1  1      0.0    87.8                   43   200
      9     XFMR_HV     230.00    1 0.9433  -11.9     0.0      0.0     0.0 ---------------------------------------------------------------------------------
                                  1 216.95            0.0      0.0    -0.0      5     REG_230     230.00    1  1    -25.2    -8.7                   14   200
                                                                               10     XFMR_LV     115.00    1  1     25.2     8.7  0.950RG          18   150
...